Tesis UCR/5bus_33v2.cf
 07/17/16 POWER TECHNOLOGIES    100.0 0    0  10/11/12 POWER TECHNOLOGIES     100.0 0
BUS DATA FOLLOWS                      5 ITEMS
   1 L1            1  1  0 0.9735  -3.30  1500.00   750.00     0.00    0.00  138.00 0.0000    0.00    0.00  0.0000  0.0000    0    1
   2 L2            1  1  0 0.9742  -3.91   500.00   250.00     0.00    0.00  138.00 0.0000    0.00    0.00  0.0000  0.0000    0    2
   3 G3            1  1  2 1.0500   4.14     0.00     0.00  1000.00  251.86  138.00 1.0500  750.00 -750.00  0.0000  0.0000    0    3
   4 G4            1  1  2 1.0500   1.14     0.00     0.00   750.00  692.07  138.00 1.0500  750.00 -750.00  0.0000  0.0000    0    4
   5 G5            1  1  3 1.0500   0.00     0.00     0.00   308.79  348.88  138.00 1.0500  500.00 -500.00  0.0000  0.0000    0    5
-999
BRANCH DATA FOLLOWS                   6 ITEMS
   1    2  0  0 1 0  0.000000  0.010000   0.00000     1     0     0    0 0  0.0000    0.00 0.0000 0.00000.00000  0.0000 0.0000     1
   1    3  0  0 1 0  0.000000  0.020000   0.00000     1     0     0    0 0  0.0000    0.00 0.0000 0.00000.00000  0.0000 0.0000     2
   1    4  0  0 1 0  0.000000  0.010000   0.00000     1     0     0    0 0  0.0000    0.00 0.0000 0.00000.00000  0.0000 0.0000     3
   2    5  0  0 1 0  0.000000  0.020000   0.00000     1     0     0    0 0  0.0000    0.00 0.0000 0.00000.00000  0.0000 0.0000     4
   3    4  0  0 1 0  0.000000  0.020000   0.00000     1     0     0    0 0  0.0000    0.00 0.0000 0.00000.00000  0.0000 0.0000     5
   4    5  0  0 1 0  0.000000  0.020000   0.00000     1     0     0    0 0  0.0000    0.00 0.0000 0.00000.00000  0.0000 0.0000     6
-999
LOSS ZONES FOLLOWS                    0 ITEMS
-99
INTERCHANGE DATA FOLLOWS              1 ITEMS
 1    5 G5               0.0 999.99  0       0                                                                                     1
-9
TIE LINES FOLLOW                      0 ITEMS
-999
END OF DATA
